FoamFile
{
    version      2.0;
    format       ascii;
    class        dictionary;
    object       blockMeshDict;
}

convertToMeters 1;

vertices
(
(0.00000 0.00000 0.00000) // 0
(0.00000 0.00000 0.03500) // 1
(0.00000 0.00000 0.25000) // 2
(0.00000 0.02750 0.00000) // 3
(0.00000 0.02750 0.03500) // 4
(0.00000 0.02750 0.25000) // 5
(0.00000 0.06750 0.00000) // 6
(0.00000 0.06750 0.03500) // 7
(0.00000 0.06750 0.25000) // 8
(0.00000 0.10250 0.00000) // 9
(0.00000 0.10250 0.03500) // 10
(0.00000 0.10250 0.25000) // 11
(0.00500 0.00000 0.00000) // 12
(0.00500 0.00000 0.03500) // 13
(0.00500 0.00000 0.25000) // 14
(0.00500 0.02750 0.00000) // 15
(0.00500 0.02750 0.03500) // 16
(0.00500 0.02750 0.25000) // 17
(0.00500 0.06750 0.00000) // 18
(0.00500 0.06750 0.03500) // 19
(0.00500 0.06750 0.25000) // 20
(0.00500 0.10250 0.00000) // 21
(0.00500 0.10250 0.03500) // 22
(0.00500 0.10250 0.25000) // 23
(0.04000 0.00000 0.00000) // 24
(0.04000 0.00000 0.03500) // 25
(0.04000 0.00000 0.25000) // 26
(0.04000 0.02750 0.00000) // 27
(0.04000 0.02750 0.03500) // 28
(0.04000 0.02750 0.25000) // 29
(0.04000 0.06750 0.00000) // 30
(0.04000 0.06750 0.03500) // 31
(0.04000 0.06750 0.25000) // 32
(0.04000 0.10250 0.00000) // 33
(0.04000 0.10250 0.03500) // 34
(0.04000 0.10250 0.25000) // 35
(0.39500 0.00000 0.00000) // 36
(0.39500 0.00000 0.03500) // 37
(0.39500 0.00000 0.25000) // 38
(0.39500 0.02750 0.00000) // 39
(0.39500 0.02750 0.03500) // 40
(0.39500 0.02750 0.25000) // 41
(0.39500 0.06750 0.00000) // 42
(0.39500 0.06750 0.03500) // 43
(0.39500 0.06750 0.25000) // 44
(0.39500 0.10250 0.00000) // 45
(0.39500 0.10250 0.03500) // 46
(0.39500 0.10250 0.25000) // 47
(0.40000 0.00000 0.00000) // 48
(0.40000 0.00000 0.03500) // 49
(0.40000 0.00000 0.25000) // 50
(0.40000 0.02750 0.00000) // 51
(0.40000 0.02750 0.03500) // 52
(0.40000 0.02750 0.25000) // 53
(0.40000 0.06750 0.00000) // 54
(0.40000 0.06750 0.03500) // 55
(0.40000 0.06750 0.25000) // 56
(0.40000 0.10250 0.00000) // 57
(0.40000 0.10250 0.03500) // 58
(0.40000 0.10250 0.25000) // 59
);

blocks
(
    hex (0 12 15 3 1 13 16 4) (5 13 17) simpleGrading (1 1 1)
    hex (12 24 27 15 13 25 28 16) (17 13 17) simpleGrading (1 1 1)
    hex (24 36 39 27 25 37 40 28) (177 13 17) simpleGrading (1 1 1)
    hex (36 48 51 39 37 49 52 40) (2 13 17) simpleGrading (1 1 1)
    hex (3 15 18 6 4 16 19 7) (5 20 17) simpleGrading (1 1 1)
    hex (15 27 30 18 16 28 31 19) (17 20 17) simpleGrading (1 1 1)
    hex (27 39 42 30 28 40 43 31) (177 20 17) simpleGrading (1 1 1)
    hex (39 51 54 42 40 52 55 43) (2 20 17) simpleGrading (1 1 1)
    hex (6 18 21 9 7 19 22 10) (5 17 17) simpleGrading (1 1 1)
    hex (18 30 33 21 19 31 34 22) (17 17 17) simpleGrading (1 1 1)
    hex (30 42 45 33 31 43 46 34) (177 17 17) simpleGrading (1 1 1)
    hex (42 54 57 45 43 55 58 46) (2 17 17) simpleGrading (1 1 1)
    hex (13 25 28 16 14 26 29 17) (17 13 107) simpleGrading (1 1 1)
    hex (25 37 40 28 26 38 41 29) (177 13 107) simpleGrading (1 1 1)
    hex (37 49 52 40 38 50 53 41) (2 13 107) simpleGrading (1 1 1)
    hex (4 16 19 7 5 17 20 8) (5 20 107) simpleGrading (1 1 1)
    hex (16 28 31 19 17 29 32 20) (17 20 107) simpleGrading (1 1 1)
    hex (28 40 43 31 29 41 44 32) (177 20 107) simpleGrading (1 1 1)
    hex (40 52 55 43 41 53 56 44) (2 20 107) simpleGrading (1 1 1)
    hex (7 19 22 10 8 20 23 11) (5 17 107) simpleGrading (1 1 1)
    hex (19 31 34 22 20 32 35 23) (17 17 107) simpleGrading (1 1 1)
    hex (31 43 46 34 32 44 47 35) (177 17 107) simpleGrading (1 1 1)
    hex (43 55 58 46 44 56 59 47) (2 17 107) simpleGrading (1 1 1)
);

boundary
(
    inlet
    {
        type patch;
        faces
        (
         (7 8 11 10) 
         (4 5 8 7) 
         (1 2 5 4) 
        );
    }
);


edges
(
);

edges
(
);
